*Heading
** Job name: Miehe2014_3D Model name: Model-1
** Generated by: Abaqus/CAE 2024
*Preprint, echo=NO, model=NO, history=NO, contact=NO
** ----------------------------------------------------------------
** 
** PART INSTANCE: Miehe2014-1
**
******************************************************************
** UNITS USED:
** Length  = mm
** Stress  = MPa
** Time    = s
******************************************************************
*Parameter
lc = 0.03
CP = 1.e0
zeta = 1.e-3 
erff = 240.e0
Gshear = 5e0
Poisson = 0.45e0
*Node
      1,           1., 0.0199999996,           0.
      2,           0., 0.0199999996,           0.
      3,           0.,  0.200000003,           0.
      4,           1.,  0.200000003,           0.
      5,           0., 0.0199999996, 0.00999999978
      6,           1., 0.0199999996, 0.00999999978
      7,           1.,  0.200000003, 0.00999999978
      8,           0.,  0.200000003, 0.00999999978
      9,  0.100000001, 0.00499999989,           0.
     10,           0., 0.00499999989,           0.
     11,  0.100000001,           0.,           0.
     12,           1.,           0.,           0.
     13,           0., 0.00499999989, 0.00999999978
     14,  0.100000001, 0.00499999989, 0.00999999978
     15,  0.100000001,           0., 0.00999999978
     16,           1.,           0., 0.00999999978
     17,  0.995000005, 0.0199999996,           0.
     18,   0.99000001, 0.0199999996,           0.
     19,  0.985000014, 0.0199999996,           0.
     20,  0.980000019, 0.0199999996,           0.
** ... 10756 like lines cut
*Element, type=C3D8T
   1,  1201,  3209,  3218,  3220,  7902,  9910,  9919,  9921
   2,  1735,  1920,  2057,  2065,  8436,  8621,  8758,  8766
   3,  1061,  3100,  3214,  3204,  7762,  9801,  9915,  9905
   4,   276,  3135,  3204,   277,  6043,  9836,  9905,  6042
   5,  3135,   276,   275,  3172,  9836,  6043,  6044,  9873
   6,  3172,   275,   274,  3129,  9873,  6044,  6045,  9830
   7,     4,   272,  1154,   273,   282,  6047,  7855,  6046
   8,  1154,  3129,   274,   273,  7855,  9830,  6045,  6046
   9,  3211,   260,   259,  3174,  9912,  6059,  6060,  9875
  10,  1117,  3041,  3108,  3153,  7818,  9742,  9809,  9854
  11,  3111,  3064,  3040,  3019,  9812,  9765,  9741,  9720
  12,  2805,  2760,  2856,  1049,  9506,  9461,  9557,  7750
  13,  3379,  2719,  2729,  2771, 10080,  9420,  9430,  9472
  14,  2195,  3359,  2121,  2089,  8896, 10060,  8822,  8790
  15,  1158,  1275,   103,   102,  7859,  7976,  6182,  6181
  16,  1498,  1645,  1567,  1360,  8199,  8346,  8268,  8061
  17,  1160,  1278,   108,   107,  7861,  7979,  6187,  6186
  18,  1279,  1161,   111,   110,  7980,  7862,  6190,  6189
  19,  1162,  1280,   113,   112,  7863,  7981,  6192,  6191
  20,  2152,  2278,  2191,  2116,  8853,  8979,  8892,  8817
** ... 6886 like lines cut
*Nset, nset=nALL, generate
     1,  10776,      1
*Elset, elset=elALL, generate
    1,  6906,     1
*Solid Section, elset=elall, material=NeoHookean
,
*Nset, nset=LEFT
    2,    3,    5,    8,   10,   13,  216,  217,  218,  219,  220,  221,  222,  223,  283,  284
  541,  542,  543,  544,  545,  546,  547,  548,  750,  751,  753,  756,  757, 6295, 6296, 6297
 6298, 6299, 6300, 6301, 6302, 7460, 7461
*Elset, elset=LEFT
   48,  138,  139,  141,  142,  143,  144,  566,  567, 2721, 2811, 2812, 2814, 2815, 2816, 2817
 3239, 3240, 5404, 5405, 5406, 6184, 6185, 6186
*Nset, nset=TOP
    3,    4,    7,    8,  224,  225,  226,  227,  228,  229,  230,  231,  232,  233,  234,  235
  236,  237,  238,  239,  240,  241,  242,  243,  244,  245,  246,  247,  248,  249,  250,  251
  252,  253,  254,  255,  256,  257,  258,  259,  260,  261,  262,  263,  264,  265,  266,  267
  268,  269,  270,  271,  272,  282,  283,  492,  493,  494,  495,  496,  497,  498,  499,  500
  501,  502,  503,  504,  505,  506,  507,  508,  509,  510,  511,  512,  513,  514,  515,  516
  517,  518,  519,  520,  521,  522,  523,  524,  525,  526,  527,  528,  529,  530,  531,  532
  533,  534,  535,  536,  537,  538,  539,  540, 6047, 6048, 6049, 6050, 6051, 6052, 6053, 6054
 6055, 6056, 6057, 6058, 6059, 6060, 6061, 6062, 6063, 6064, 6065, 6066, 6067, 6068, 6069, 6070
 6071, 6072, 6073, 6074, 6075, 6076, 6077, 6078, 6079, 6080, 6081, 6082, 6083, 6084, 6085, 6086
 6087, 6088, 6089, 6090, 6091, 6092, 6093, 6094, 6095
*Elset, elset=TOP
    7,    9,   24,   25,   26,   27,   28,   30,   31,   32,   48,   49,  145,  153,  159,  164
  168,  169,  172,  175,  176,  177,  179,  180,  181,  182,  183,  184,  185,  186,  187,  188
  189,  190,  191,  192,  193,  196,  197,  568,  569,  570,  571,  572,  573,  574,  575,  576
 2573, 2578, 2680, 2682, 2697, 2698, 2699, 2700, 2701, 2703, 2704, 2705, 2721, 2722, 2818, 2826
 2832, 2837, 2841, 2842, 2845, 2848, 2849, 2850, 2852, 2853, 2854, 2855, 2856, 2857, 2858, 2859
 2860, 2861, 2862, 2863, 2864, 2865, 2866, 2869, 2870, 3241, 3242, 3243, 3244, 3245, 3246, 3247
 3248, 3249, 5246, 5251
*Nset, nset=BOTTOM
   11,   12,   15,   16,  552,  553,  554,  555,  556,  557,  558,  559,  560,  561,  562,  563
  564,  565,  566,  567,  568,  569,  570,  571,  572,  573,  574,  575,  576,  577,  578,  579
  580,  581,  582,  583,  584,  585,  586,  587,  588,  589,  590,  591,  592,  593,  594,  595
  596,  597,  598,  599,  600,  601,  602,  603,  604,  605,  606,  607,  608,  609,  610,  611
  612,  613,  614,  615,  616,  617,  618,  619,  620,  621,  622,  623,  624,  625,  626,  627
  628,  629,  630,  631,  632,  633,  634,  635,  636,  637,  638,  639,  640,  641,  642,  643
  644,  645,  646,  647,  648,  649,  650,  651,  652,  653,  654,  655,  656,  657,  658,  659
  660,  661,  662,  663,  664,  665,  666,  667,  668,  669,  670,  671,  672,  673,  674,  675
  676,  677,  678,  679,  680,  681,  682,  683,  684,  685,  686,  687,  688,  689,  690,  691
  692,  693,  694,  695,  696,  697,  698,  699,  700,  701,  702,  703,  704,  705,  706,  707
  708,  709,  710,  711,  712,  713,  714,  715,  716,  717,  718,  719,  720,  721,  722,  723
  724,  725,  726,  727,  728,  729,  730,  752,  754,  777,  778,  779,  780,  781,  782,  783
  784,  785,  786,  787,  788,  789,  790,  791,  792,  793,  794,  795,  796,  797,  798,  799
  800,  801,  802,  803,  804,  805,  806,  807,  808,  809,  810,  811,  812,  813,  814,  815
  816,  817,  818,  819,  820,  821,  822,  823,  824,  825,  826,  827,  828,  829,  830,  831
  832,  833,  834,  835,  836,  837,  838,  839,  840,  841,  842,  843,  844,  845,  846,  847
  848,  849,  850,  851,  852,  853,  854,  855,  856,  857,  858,  859,  860,  861,  862,  863
  864,  865,  866,  867,  868,  869,  870,  871,  872,  873,  874,  875,  876,  877,  878,  879
  880,  881,  882,  883,  884,  885,  886,  887,  888,  889,  890,  891,  892,  893,  894,  895
  896,  897,  898,  899,  900,  901,  902,  903,  904,  905,  906,  907,  908,  909,  910,  911
** ... 14 like lines cut
*Elset, elset=BOTTOM
 5410, 5414, 5418, 5422, 5426, 5430, 5434, 5438, 5442, 5446, 5450, 5454, 5458, 5462, 5466, 5470
 5474, 5478, 5482, 5486, 5490, 5494, 5498, 5502, 5506, 5510, 5514, 5518, 5522, 5526, 5530, 5534
 5538, 5542, 5546, 5550, 5554, 5558, 5562, 5566, 5570, 5574, 5578, 5582, 5586, 5590, 5594, 5598
 5602, 5606, 5610, 5614, 5618, 5622, 5626, 5630, 5634, 5638, 5642, 5646, 5650, 5654, 5658, 5662
 5666, 5670, 5674, 5678, 5682, 5686, 5690, 5694, 5698, 5702, 5706, 5710, 5714, 5718, 5722, 5726
 5730, 5734, 5738, 5742, 5746, 5750, 5754, 5758, 5762, 5766, 5770, 5774, 5778, 5782, 5786, 5790
 5794, 5798, 5802, 5806, 5810, 5814, 5818, 5822, 5826, 5830, 5834, 5838, 5842, 5846, 5850, 5854
 5858, 5862, 5866, 5870, 5874, 5878, 5882, 5886, 5890, 5894, 5898, 5902, 5906, 5910, 5914, 5918
 5922, 5926, 5930, 5934, 5938, 5942, 5946, 5950, 5954, 5958, 5962, 5966, 5970, 5974, 5978, 5982
 5983, 5987, 5991, 5995, 5999, 6003, 6007, 6011, 6015, 6019, 6023, 6027, 6031, 6035, 6039, 6043
 6047, 6051, 6055, 6059, 6063, 6067, 6071, 6075, 6079, 6083, 6087, 6091, 6095, 6099, 6103, 6107
 6111, 6115, 6119, 6123, 6190, 6194, 6198, 6202, 6206, 6210, 6214, 6218, 6222, 6226, 6230, 6234
 6238, 6242, 6246, 6250, 6254, 6258, 6262, 6266, 6270, 6274, 6278, 6282, 6286, 6290, 6294, 6298
 6302, 6306, 6310, 6314, 6318, 6322, 6326, 6330, 6334, 6338, 6342, 6346, 6350, 6354, 6358, 6362
 6366, 6370, 6374, 6378, 6382, 6386, 6390, 6394, 6398, 6402, 6406, 6410, 6414, 6418, 6422, 6426
 6430, 6434, 6438, 6442, 6446, 6450, 6454, 6458, 6462, 6466, 6470, 6474, 6478, 6482, 6486, 6490
 6494, 6498, 6502, 6506, 6510, 6514, 6518, 6522, 6526, 6530, 6534, 6538, 6542, 6546, 6550, 6554
 6558, 6562, 6566, 6570, 6574, 6578, 6582, 6586, 6590, 6594, 6598, 6602, 6606, 6610, 6614, 6618
 6622, 6626, 6630, 6634, 6638, 6642, 6646, 6650, 6654, 6658, 6662, 6666, 6670, 6674, 6678, 6682
 6686, 6690, 6694, 6698, 6702, 6706, 6710, 6714, 6718, 6722, 6726, 6730, 6734, 6738, 6742, 6746
 6750, 6754, 6758, 6762, 6763, 6767, 6771, 6775, 6779, 6783, 6787, 6791, 6795, 6799, 6803, 6807
 6811, 6815, 6819, 6823, 6827, 6831, 6835, 6839, 6843, 6847, 6851, 6855, 6859, 6863, 6867, 6871
 6875, 6879, 6883, 6887, 6891, 6895, 6899, 6903
*Nset, nset=RIGHT
    1,    4,    6,    7,   12,   16,  273,  274,  275,  276,  277,  278,  279,  280,  281,  282
  484,  485,  486,  487,  488,  489,  490,  491,  549,  550,  551,  752,  956,  957,  958, 6039
 6040, 6041, 6042, 6043, 6044, 6045, 6046, 7457, 7458, 7459
*Elset, elset=RIGHT
    4,    5,    6,    7,    8,  198,  199, 1590, 2579, 2677, 2678, 2679, 2680, 2681, 2871, 2872
 4263, 5252, 6123, 6124, 6125, 6126, 6903, 6904, 6905, 6906
*Nset, nset=FRONT
    5,    6,    7,    8,   13,   14,   15,   16,  285,  286,  287,  288,  289,  290,  291,  292
  293,  294,  295,  296,  297,  298,  299,  300,  301,  302,  303,  304,  305,  306,  307,  308
  309,  310,  311,  312,  313,  314,  315,  316,  317,  318,  319,  320,  321,  322,  323,  324
  325,  326,  327,  328,  329,  330,  331,  332,  333,  334,  335,  336,  337,  338,  339,  340
  341,  342,  343,  344,  345,  346,  347,  348,  349,  350,  351,  352,  353,  354,  355,  356
  357,  358,  359,  360,  361,  362,  363,  364,  365,  366,  367,  368,  369,  370,  371,  372
  373,  374,  375,  376,  377,  378,  379,  380,  381,  382,  383,  384,  385,  386,  387,  388
  389,  390,  391,  392,  393,  394,  395,  396,  397,  398,  399,  400,  401,  402,  403,  404
  405,  406,  407,  408,  409,  410,  411,  412,  413,  414,  415,  416,  417,  418,  419,  420
  421,  422,  423,  424,  425,  426,  427,  428,  429,  430,  431,  432,  433,  434,  435,  436
  437,  438,  439,  440,  441,  442,  443,  444,  445,  446,  447,  448,  449,  450,  451,  452
  453,  454,  455,  456,  457,  458,  459,  460,  461,  462,  463,  464,  465,  466,  467,  468
  469,  470,  471,  472,  473,  474,  475,  476,  477,  478,  479,  480,  481,  482,  483,  484
  485,  486,  487,  488,  489,  490,  491,  492,  493,  494,  495,  496,  497,  498,  499,  500
  501,  502,  503,  504,  505,  506,  507,  508,  509,  510,  511,  512,  513,  514,  515,  516
  517,  518,  519,  520,  521,  522,  523,  524,  525,  526,  527,  528,  529,  530,  531,  532
  533,  534,  535,  536,  537,  538,  539,  540,  541,  542,  543,  544,  545,  546,  547,  548
  756,  757,  758,  759,  760,  761,  762,  763,  764,  765,  766,  767,  768,  769,  770,  771
  772,  773,  774,  775,  776,  777,  778,  779,  780,  781,  782,  783,  784,  785,  786,  787
  788,  789,  790,  791,  792,  793,  794,  795,  796,  797,  798,  799,  800,  801,  802,  803
** ... 205 like lines cut
*Elset, elset=FRONT
 2674, 2675, 2676, 2677, 2678, 2679, 2680, 2681, 2682, 2683, 2684, 2685, 2686, 2687, 2688, 2689
 2690, 2691, 2692, 2693, 2694, 2695, 2696, 2697, 2698, 2699, 2700, 2701, 2702, 2703, 2704, 2705
 2706, 2707, 2708, 2709, 2710, 2711, 2712, 2713, 2714, 2715, 2716, 2717, 2718, 2719, 2720, 2721
 2722, 2723, 2724, 2725, 2726, 2727, 2728, 2729, 2730, 2731, 2732, 2733, 2734, 2735, 2736, 2737
 2738, 2739, 2740, 2741, 2742, 2743, 2744, 2745, 2746, 2747, 2748, 2749, 2750, 2751, 2752, 2753
 2754, 2755, 2756, 2757, 2758, 2759, 2760, 2761, 2762, 2763, 2764, 2765, 2766, 2767, 2768, 2769
 2770, 2771, 2772, 2773, 2774, 2775, 2776, 2777, 2778, 2779, 2780, 2781, 2782, 2783, 2784, 2785
 2786, 2787, 2788, 2789, 2790, 2791, 2792, 2793, 2794, 2795, 2796, 2797, 2798, 2799, 2800, 2801
 2802, 2803, 2804, 2805, 2806, 2807, 2808, 2809, 2810, 2811, 2812, 2813, 2814, 2815, 2816, 2817
 2818, 2819, 2820, 2821, 2822, 2823, 2824, 2825, 2826, 2827, 2828, 2829, 2830, 2831, 2832, 2833
 2834, 2835, 2836, 2837, 2838, 2839, 2840, 2841, 2842, 2843, 2844, 2845, 2846, 2847, 2848, 2849
 2850, 2851, 2852, 2853, 2854, 2855, 2856, 2857, 2858, 2859, 2860, 2861, 2862, 2863, 2864, 2865
 2866, 2867, 2868, 2869, 2870, 2871, 2872, 2873, 2874, 2875, 2876, 2877, 2878, 2879, 2880, 2881
 2882, 2883, 2884, 2885, 2886, 2887, 2888, 2889, 2890, 2891, 2892, 2893, 2894, 2895, 2896, 2897
 2898, 2899, 2900, 2901, 2902, 2903, 2904, 2905, 2906, 2907, 2908, 2909, 2910, 2911, 2912, 2913
 2914, 2915, 2916, 2917, 2918, 2919, 2920, 2921, 2922, 2923, 2924, 2925, 2926, 2927, 2928, 2929
 2930, 2931, 2932, 2933, 2934, 2935, 2936, 2937, 2938, 2939, 2940, 2941, 2942, 2943, 2944, 2945
 2946, 2947, 2948, 2949, 2950, 2951, 2952, 2953, 2954, 2955, 2956, 2957, 2958, 2959, 2960, 2961
 2962, 2963, 2964, 2965, 2966, 2967, 2968, 2969, 2970, 2971, 2972, 2973, 2974, 2975, 2976, 2977
 2978, 2979, 2980, 2981, 2982, 2983, 2984, 2985, 2986, 2987, 2988, 2989, 2990, 2991, 2992, 2993
** ... 196 like lines cut
*Nset, nset=BACK
    1,    2,    3,    4,    9,   10,   11,   12,   17,   18,   19,   20,   21,   22,   23,   24
   25,   26,   27,   28,   29,   30,   31,   32,   33,   34,   35,   36,   37,   38,   39,   40
   41,   42,   43,   44,   45,   46,   47,   48,   49,   50,   51,   52,   53,   54,   55,   56
   57,   58,   59,   60,   61,   62,   63,   64,   65,   66,   67,   68,   69,   70,   71,   72
   73,   74,   75,   76,   77,   78,   79,   80,   81,   82,   83,   84,   85,   86,   87,   88
   89,   90,   91,   92,   93,   94,   95,   96,   97,   98,   99,  100,  101,  102,  103,  104
  105,  106,  107,  108,  109,  110,  111,  112,  113,  114,  115,  116,  117,  118,  119,  120
  121,  122,  123,  124,  125,  126,  127,  128,  129,  130,  131,  132,  133,  134,  135,  136
  137,  138,  139,  140,  141,  142,  143,  144,  145,  146,  147,  148,  149,  150,  151,  152
  153,  154,  155,  156,  157,  158,  159,  160,  161,  162,  163,  164,  165,  166,  167,  168
  169,  170,  171,  172,  173,  174,  175,  176,  177,  178,  179,  180,  181,  182,  183,  184
  185,  186,  187,  188,  189,  190,  191,  192,  193,  194,  195,  196,  197,  198,  199,  200
  201,  202,  203,  204,  205,  206,  207,  208,  209,  210,  211,  212,  213,  214,  215,  216
  217,  218,  219,  220,  221,  222,  223,  224,  225,  226,  227,  228,  229,  230,  231,  232
  233,  234,  235,  236,  237,  238,  239,  240,  241,  242,  243,  244,  245,  246,  247,  248
  249,  250,  251,  252,  253,  254,  255,  256,  257,  258,  259,  260,  261,  262,  263,  264
  265,  266,  267,  268,  269,  270,  271,  272,  273,  274,  275,  276,  277,  278,  279,  280
  549,  550,  551,  552,  553,  554,  555,  556,  557,  558,  559,  560,  561,  562,  563,  564
  565,  566,  567,  568,  569,  570,  571,  572,  573,  574,  575,  576,  577,  578,  579,  580
  581,  582,  583,  584,  585,  586,  587,  588,  589,  590,  591,  592,  593,  594,  595,  596
** ... 205 like lines cut
*Elset, elset=BACK
    1,    2,    3,    4,    5,    6,    7,    8,    9,   10,   11,   12,   13,   14,   15,   16
   17,   18,   19,   20,   21,   22,   23,   24,   25,   26,   27,   28,   29,   30,   31,   32
   33,   34,   35,   36,   37,   38,   39,   40,   41,   42,   43,   44,   45,   46,   47,   48
   49,   50,   51,   52,   53,   54,   55,   56,   57,   58,   59,   60,   61,   62,   63,   64
   65,   66,   67,   68,   69,   70,   71,   72,   73,   74,   75,   76,   77,   78,   79,   80
   81,   82,   83,   84,   85,   86,   87,   88,   89,   90,   91,   92,   93,   94,   95,   96
   97,   98,   99,  100,  101,  102,  103,  104,  105,  106,  107,  108,  109,  110,  111,  112
  113,  114,  115,  116,  117,  118,  119,  120,  121,  122,  123,  124,  125,  126,  127,  128
  129,  130,  131,  132,  133,  134,  135,  136,  137,  138,  139,  140,  141,  142,  143,  144
  145,  146,  147,  148,  149,  150,  151,  152,  153,  154,  155,  156,  157,  158,  159,  160
  161,  162,  163,  164,  165,  166,  167,  168,  169,  170,  171,  172,  173,  174,  175,  176
  177,  178,  179,  180,  181,  182,  183,  184,  185,  186,  187,  188,  189,  190,  191,  192
  193,  194,  195,  196,  197,  198,  199,  200,  201,  202,  203,  204,  205,  206,  207,  208
  209,  210,  211,  212,  213,  214,  215,  216,  217,  218,  219,  220,  221,  222,  223,  224
  225,  226,  227,  228,  229,  230,  231,  232,  233,  234,  235,  236,  237,  238,  239,  240
  241,  242,  243,  244,  245,  246,  247,  248,  249,  250,  251,  252,  253,  254,  255,  256
  257,  258,  259,  260,  261,  262,  263,  264,  265,  266,  267,  268,  269,  270,  271,  272
  273,  274,  275,  276,  277,  278,  279,  280,  281,  282,  283,  284,  285,  286,  287,  288
  289,  290,  291,  292,  293,  294,  295,  296,  297,  298,  299,  300,  301,  302,  303,  304
  305,  306,  307,  308,  309,  310,  311,  312,  313,  314,  315,  316,  317,  318,  319,  320
** ... 196 like lines cut
**
**
*****************************************************************
**
** MATERIALS
**
*****************************************************************
*Material, name=NeoHookean
*User material,Constants=5
<Gshear>,<Poisson>,<erff>,<lc>,<zeta>
*User material, type=thermal, constants=4
<erff>,<lc>,<zeta>,<CP>
*Depvar
11,
1,   Hr, Hr
2,   detF, detF
3,   F_11, F_11
4,   F_22, F_22
5,   F_33, F_33
6,   F_12, F_12
7,   F_13, F_13
8,   F_21, F_21
9,   F_23, F_23
10,   F_31, F_31
11,   F_32, F_32
*Density
1.e-3
**
*********************************************************************
**                 INITIAL CONDITIONS, MODEL DATA
*********************************************************************
*Initial Conditions, type=TEMPERATURE
nall, 0.
*********************************************************************
**                 BOUNDARY CONDITIONS, MODEL DATA
*********************************************************************
****************************************************************
**			AMPLITUDE DEFINITION
****************************************************************
**
********************************************************************
**             		ANALYSIS STEP, STANDARD
****************************************************************** 
*Step, name=Step-1, nlgeom=YES, inc=5000000, unsymm=yes
*Coupled temperature-displacement, deltmx=1.0
1e-1, 1600, 1e-9, 1e-1
*CONTROLS, PARAMETERS=TIME INCREMENTATION
100, 100, 100, 100, 100, 100, ,20 , , ,
*SOLUTION TECHNIQUE, TYPE = SEPARATED
** BOUNDARY CONDITIONS
** 
** Name: XSYM Type: Symmetry/Antisymmetry/Encastre
*Boundary
BOTTOM, YSYMM
** Name: YSYM Type: Symmetry/Antisymmetry/Encastre
*Boundary
LEFT, XSYMM
** Name: ZSYM Type: Symmetry/Antisymmetry/Encastre
*Boundary
BACK, ZSYMM
*Boundary, amplitude=const_rate1
top, 2, 2
*amplitude,name=const_rate1,value=absolute,definition=tabular
0,0,1600.,0.64,
** *Restart, write, frequency=1, overlay
*Output, field, time interval=1, time marks=no
*node output, nset=nall
u,nt,RF
*Element output, elset=elall
le,SDV
*Output, history, frequency=1
*Node Output, nset=top
RF2, U2
*End Step
******************************************************************