*Heading
** Job name: SENB Model name: Model-1
** Generated by: Abaqus/CAE 2024
*Preprint, echo=NO, model=NO, history=NO, contact=NO
** ----------------------------------------------------------------
** 
** PART INSTANCE: SENB
**
******************************************************************
** UNITS USED:
** Length  = mm
** Stress  = MPa
** Time    = s
****************************************************************** 
*Parameter
CP = 1.e0
zeta = 1.e-3
erff = 5.
lc = 0.1
Eyoung = 210000.
Poisson = 0.3
Y0 = 300
H = 5.0
Ysat= 450
mRate = 0.05
nu0 = 1.e-4
psi_cr = 9.e0
** PART INSTANCE: beam-1
** 
*Node
      1,   74.5100021,           7.
      2,   74.5100021,          10.
      3,         70.5,          10.
      4,         70.5,           7.
      5,   75.4899979,          10.
      6,   75.4899979,           7.
      7,         79.5,           7.
      8,         79.5,          10.
      9,          75.,          7.5
     10,          75.,           7.
     11,          70.,          10.
     12,          70.,           7.
     13,          80.,           7.
     14,          80.,          10.
     15,   74.5100021,   7.02055168
     16,   74.5100021,   7.04029083
     17,   74.5100021,    7.0598855
     18,   74.5100021,   7.07953119
     19,   74.5100021,   7.09931087
     20,   74.5100021,   7.11934948
** ... 17301 like lines cut
*Element, type=CPE4T
   1,   15,   16, 1381, 4662
   2,  270,  271, 2318, 4057
   3, 4130, 4039,  740, 4038
   4,  266,  267, 3982, 3880
   5,  265,  266, 3880, 3964
   6,  264,  265, 3964,  742
   7,  262,  263, 3869, 3866
   8,  261,  262, 3866, 3963
   9,  260,  261, 3963,  744
  10,  258,  259, 3870, 3962
  11,  257,  258, 3962,  746
  12,  746, 3968,  256,  257
  13,  254,  255, 3879,  747
  14, 3961,  253,  254,  747
  15, 3961, 3868,  252,  253
  16,  250,  251, 3960,  750
  17,  750, 3959,  249,  250
  18,  247,  248, 3884, 3958
  19,  246,  247, 3958,  753
  20,  753, 3950,  245,  246
** ... 17102 like lines cut
*Nset, nset=nall, generate
     1,  17321,      1
*Elset, elset=elall, generate
     1,  17122,      1
** Section: Section-1
*Solid Section, elset=elall, material=Material-1
,
** ----------------------------------------------------------------
** 
** PART INSTANCE: support-1
** 
*System
   75.251102,    5.250002,          0.,   76.251102,    5.250002,          0.
*Node
  17322,         -0.5,           6.
  17323,           0.,           6.
  17324,           0.,   4.99778509
  17325,         -0.5,           5.
  17326, -0.0500000007,           6.
  17327, -0.100000001,           6.
  17328, -0.150000006,           6.
  17329, -0.200000003,           6.
  17330,        -0.25,           6.
  17331, -0.300000012,           6.
  17332, -0.349999994,           6.
  17333, -0.400000006,           6.
  17334, -0.449999988,           6.
  17335,           0.,   5.04789591
  17336,           0.,   5.09800673
  17337,           0.,   5.14811754
  17338,           0.,   5.19822836
  17339,           0.,   5.24833918
  17340,           0.,   5.29844952
  17341,           0.,   5.34856033
** ... 46 like lines cut
*Element, type=R2D2
17123, 17323, 17326
17124, 17326, 17327
17125, 17327, 17328
17126, 17328, 17329
17127, 17329, 17330
17128, 17330, 17331
17129, 17331, 17332
17130, 17332, 17333
17131, 17333, 17334
17132, 17334, 17322
17133, 17324, 17335
17134, 17335, 17336
17135, 17336, 17337
17136, 17337, 17338
17137, 17338, 17339
17138, 17339, 17340
17139, 17340, 17341
17140, 17341, 17342
17141, 17342, 17343
17142, 17343, 17344
** ... 46 like lines cut
*Node
  17388, -0.251102448,   4.74999762,           0.
*Nset, nset=support-1-RefPt_
17388, 
*Elset, elset=support-1, generate
17123, 17188,   1
** ----------------------------------------------------------------
** 
** PART INSTANCE: support-2
** 
*System
   70.248898,   11.749998,          0.,   69.248898,   11.749998,          0.
*Node
  17389,         -0.5,           6.
  17390,           0.,           6.
  17391,           0.,   4.99778509
  17392,         -0.5,           5.
  17393, -0.0500000007,           6.
  17394, -0.100000001,           6.
  17395, -0.150000006,           6.
  17396, -0.200000003,           6.
  17397,        -0.25,           6.
  17398, -0.300000012,           6.
  17399, -0.349999994,           6.
  17400, -0.400000006,           6.
  17401, -0.449999988,           6.
  17402,           0.,   5.04789591
  17403,           0.,   5.09800673
  17404,           0.,   5.14811754
  17405,           0.,   5.19822836
  17406,           0.,   5.24833918
  17407,           0.,   5.29844952
  17408,           0.,   5.34856033
** ... 46 like lines cut
*Element, type=R2D2
17189, 17390, 17393
17190, 17393, 17394
17191, 17394, 17395
17192, 17395, 17396
17193, 17396, 17397
17194, 17397, 17398
17195, 17398, 17399
17196, 17399, 17400
17197, 17400, 17401
17198, 17401, 17389
17199, 17391, 17402
17200, 17402, 17403
17201, 17403, 17404
17202, 17404, 17405
17203, 17405, 17406
17204, 17406, 17407
17205, 17407, 17408
17206, 17408, 17409
17207, 17409, 17410
17208, 17410, 17411
** ... 46 like lines cut
*Node
  17455, -0.251102448,   4.74999762,           0.
*Nset, nset=support-2-RefPt_
17455, 
*Elset, elset=support-2, generate
17189, 17254,   1
** ----------------------------------------------------------------
** 
** PART INSTANCE: support-3
** 
*System
   79.248898,   11.749998,          0.,   78.248898,   11.749998,          0.
*Node
  17456,         -0.5,           6.
  17457,           0.,           6.
  17458,           0.,   4.99778509
  17459,         -0.5,           5.
  17460, -0.0500000007,           6.
  17461, -0.100000001,           6.
  17462, -0.150000006,           6.
  17463, -0.200000003,           6.
  17464,        -0.25,           6.
  17465, -0.300000012,           6.
  17466, -0.349999994,           6.
  17467, -0.400000006,           6.
  17468, -0.449999988,           6.
  17469,           0.,   5.04789591
  17470,           0.,   5.09800673
  17471,           0.,   5.14811754
  17472,           0.,   5.19822836
  17473,           0.,   5.24833918
  17474,           0.,   5.29844952
  17475,           0.,   5.34856033
** ... 46 like lines cut
*Element, type=R2D2
17255, 17457, 17460
17256, 17460, 17461
17257, 17461, 17462
17258, 17462, 17463
17259, 17463, 17464
17260, 17464, 17465
17261, 17465, 17466
17262, 17466, 17467
17263, 17467, 17468
17264, 17468, 17456
17265, 17458, 17469
17266, 17469, 17470
17267, 17470, 17471
17268, 17471, 17472
17269, 17472, 17473
17270, 17473, 17474
17271, 17474, 17475
17272, 17475, 17476
17273, 17476, 17477
17274, 17477, 17478
** ... 46 like lines cut
*Node
  17522, -0.251102448,   4.74999762,           0.
*Nset, nset=support-3-RefPt_
17522, 
*Elset, elset=support-3, generate
17255, 17320,   1
*System
*Nset, nset=_PickedSet28
17388,
*Nset, nset=_PickedSet29
17455,
*Nset, nset=_PickedSet29
17522,
*Nset, nset=_PickedSet124
 14989,
*Rigid Body, ref node=support-1-RefPt_, elset=support-1
*Rigid Body, ref node=support-2-RefPt_, elset=support-2
*Rigid Body, ref node=support-3-RefPt_, elset=support-3
*Elset, elset=__Int-1_gcs0_21_SPOS, generate
17153, 17168,   1
*Surface, type=ELEMENT, name=_Int-1_gcs0_21
__Int-1_gcs0_21_SPOS, SPOS
*Elset, elset=__Int-1_gcs0_25_SNEG, generate
17153, 17168,   1
*Surface, type=ELEMENT, name=_Int-1_gcs0_25
__Int-1_gcs0_25_SNEG, SNEG
*Elset, elset=__Int-1_gcs0_29_SPOS, generate
17219, 17234,   1
*Surface, type=ELEMENT, name=_Int-1_gcs0_29
__Int-1_gcs0_29_SPOS, SPOS
*Elset, elset=__Int-1_gcs0_33_SNEG, generate
17219, 17234,   1
*Surface, type=ELEMENT, name=_Int-1_gcs0_33
__Int-1_gcs0_33_SNEG, SNEG
*Elset, elset=__Int-1_gcs0_37_SPOS, generate
17285, 17300,   1
*Surface, type=ELEMENT, name=_Int-1_gcs0_37
__Int-1_gcs0_37_SPOS, SPOS
*Elset, elset=__Int-1_gcs0_41_SNEG, generate
17285, 17300,   1
*Surface, type=ELEMENT, name=_Int-1_gcs0_41
__Int-1_gcs0_41_SNEG, SNEG
*****************************************************************
**
** MATERIALS
**
*****************************************************************
*Material, name=Material-1
*User material, Constants=11
<Eyoung>,<Poisson>,<Y0>,<H>,<Ysat>,<mRate>,<nu0>,<erff>,
<lc>,<zeta>,<psi_cr>
*User material, type=thermal, constants=4
<erff>,<lc>,<zeta>,<CP>
*Depvar
23,
1, Fp_11, Fp_11
2, Fp_22, Fp_22
3, Fp_33, Fp_33
4, Fp_23, Fp_23
5, Fp_32, Fp_32
6, Fp_13, Fp_13
7, Fp_31, Fp_31
8, Fp_12, Fp_12
9, Fp_21, Fp_21
10, gBarP, gBarP
11, nuP, nuP
12, Y, Y
13,   Hr, Hr
14,   detF, detF
15,   F_11, F_11
16,   F_22, F_22
17,   F_33, F_33
18,   F_12, F_12
19,   F_13, F_13
20,   F_21, F_21
21,   F_23, F_23
22,   F_31, F_31
23,   F_32, F_32
*Density
1.e-3
**
*********************************************************************
**                 INITIAL CONDITIONS, MODEL DATA
*********************************************************************
*Initial Conditions, type=TEMPERATURE
nall, 0.
*********************************************************************
** 
** INTERACTION PROPERTIES
** 
*Surface Interaction, name=IntProp-1
1.,
*Friction, slip tolerance=0.005
 0.3,
*Surface Behavior, pressure-overclosure=HARD
** 
** BOUNDARY CONDITIONS
** 
** Name: BC-1 Type: Displacement/Rotation
*Boundary
_PickedSet28, 1, 1
_PickedSet28, 2, 2
_PickedSet28, 6, 6
** Name: BC-2 Type: Symmetry/Antisymmetry/Encastre
*Boundary
_PickedSet29, ENCASTRE
** Name: BC-3 Type: Displacement/Rotation
*Boundary
_PickedSet124, 1, 1
** 
** INTERACTIONS
** 
** Interaction: Int-1
*Contact
*Contact Inclusions, ALL EXTERIOR
*Contact Property Assignment
 ,  , IntProp-1
*Surface Property Assignment, property=GEOMETRIC CORRECTION
_Int-1_gcs0_21, Circumferential, 75.0011, 10.25
_Int-1_gcs0_25, Circumferential, 75.0011, 10.25
_Int-1_gcs0_29, Circumferential, 70.4989, 6.75
_Int-1_gcs0_33, Circumferential, 70.4989, 6.75
_Int-1_gcs0_37, Circumferential, 79.4989, 6.75
_Int-1_gcs0_41, Circumferential, 79.4989, 6.75
** ----------------------------------------------------------------
** 
** STEP: Step-1
** 
*Step, name=Load, nlgeom=YES, inc=10000, unsymm=YES
*Coupled Temperature-displacement, deltmx = 1.
0.1, 10., 1.e-10, 0.1
*Solution Technique, type=SEPARATED
** *Controls, reset	
*Controls, parameters=time incrementation
100, 100, 100, 100, 100, 100, ,20 , , ,
** 
** BOUNDARY CONDITIONS
** 
** Name: BC-1 Type: Displacement/Rotation
*Boundary
_PickedSet28, 2, 2, -0.13
** 
** OUTPUT REQUESTS
** 
*Restart, write, frequency=0
** 
** FIELD OUTPUT: F-Output-1
** 
*Output, field, time interval=0.1, time marks=no
** *Output, field, frequency=1
*Node Output
U, NT
*Element Output, directions=YES
SDV,S,LE
** 
** HISTORY OUTPUT: H-Output-1
** 
*Output, history, frequency=1
*Node Output, nset=support-1-RefPt_
RF2, U2
*Node Output, nset=support-2-RefPt_
RF2, U2
*Node Output, nset=support-3-RefPt_
RF2, U2
*End Step
** ----------------------------------------------------------------
** 
** STEP: Step-2
** 
*Step, name=Unload, nlgeom=YES, inc=10000, unsymm=YES
*Coupled Temperature-displacement, deltmx = 1.
0.1, 1., 1.e-10, 0.1
*Solution Technique, type=SEPARATED
** *Controls, reset	
*Controls, parameters=time incrementation
100, 100, 100, 100, 100, 100, ,20 , , ,
** 
** BOUNDARY CONDITIONS
** 
** Name: BC-1 Type: Displacement/Rotation
*Boundary
_PickedSet28, 2, 2, -0.1
** 
** OUTPUT REQUESTS
** 
*Restart, write, frequency=0
** 
** FIELD OUTPUT: F-Output-1
** 
*Output, field, time interval=0.01, time marks=no
** *Output, field, frequency=1
*Node Output
U, NT
*Element Output, directions=YES
SDV,S,LE
** 
** HISTORY OUTPUT: H-Output-1
** 
*Output, history, frequency=1
*Node Output, nset=support-1-RefPt_
RF2, U2
*Node Output, nset=support-2-RefPt_
RF2, U2
*Node Output, nset=support-3-RefPt_
RF2, U2
*End Step
** ----------------------------------------------------------------
** 
** STEP: Step-3
** 
*Step, name=Reload, nlgeom=YES, inc=10000, unsymm=YES
*Coupled Temperature-displacement, deltmx = 1.
0.1, 10., 1.e-10, 0.1
*Solution Technique, type=SEPARATED
** *Controls, reset	
*Controls, parameters=time incrementation
100, 100, 100, 100, 100, 100, ,20 , , ,
** 
** BOUNDARY CONDITIONS
** 
** Name: BC-1 Type: Displacement/Rotation
*Boundary
_PickedSet28, 2, 2, -1.5
** 
** OUTPUT REQUESTS
** 
*Restart, write, frequency=0
** 
** FIELD OUTPUT: F-Output-1
** 
** *Output, field, time interval=0.01, time marks=no
*Output, field, frequency=1
*Node Output
U, NT
*Element Output, directions=YES
SDV,S,LE
** 
** HISTORY OUTPUT: H-Output-1
** 
*Output, history, frequency=1
*Node Output, nset=support-1-RefPt_
RF2, U2
*Node Output, nset=support-2-RefPt_
RF2, U2
*Node Output, nset=support-3-RefPt_
RF2, U2
*End Step
** ----------------------------------------------------------------

