*Heading
** Job name: SENT Model name: Model-1
** Generated by: Abaqus/CAE 2024
*Preprint, echo=NO, model=NO, history=NO, contact=NO
** ----------------------------------------------------------------
** 
** PART INSTANCE: SENT
**
******************************************************************
** UNITS USED:
** Length  = mm
** Stress  = MPa
** Time    = s
****************************************************************** 
*Parameter
CP = 1.e0
zeta = 1.e-3
erff = 20.7
lc = 0.03
Eyoung = 210000.
Poisson = 0.3
** PART INSTANCE: Part-1-1
** 
*Node
      1,          0.5,          0.5
      2,          0.5,  0.430000007
      3,           1.,  0.430000007
      4,           1.,          0.5
      5,          0.5,  0.569999993
      6,           1.,  0.569999993
      7,           0.,          0.5
      8,           0.,  0.430000007
      9,           0.,  0.569999993
     10,           0.,           0.
     11,           1.,           0.
     12,           1.,           1.
     13,           0.,           1.
     14,          0.5,  0.495000005
     15,          0.5,   0.49000001
     16,          0.5,  0.485000014
     17,          0.5,  0.479999989
     18,          0.5,  0.474999994
     19,          0.5,  0.469999999
     20,          0.5,  0.465000004
** ... 5332 like lines cut
*Element, type=CPE4T
   1,    1,   14,  465,  237
   2,   14,   15,  466,  465
   3,   15,   16,  467,  466
   4,   16,   17,  468,  467
   5,   17,   18,  469,  468
   6,   18,   19,  470,  469
   7,   19,   20,  471,  470
   8,   20,   21,  472,  471
   9,   21,   22,  473,  472
  10,   22,   23,  474,  473
  11,   23,   24,  475,  474
  12,   24,   25,  476,  475
  13,   25,   26,  477,  476
  14,   26,    2,   27,  477
  15,  237,  465,  478,  236
  16,  465,  466,  479,  478
  17,  466,  467,  480,  479
  18,  467,  468,  481,  480
  19,  468,  469,  482,  481
  20,  469,  470,  483,  482
** ... 5269 like lines cut
*Nset, nset=nall, generate
    1,  5352,     1
*Elset, elset=elall, generate
    1,  5289,     1
*Solid Section, elset=elall, material=Material-1
,
*Nset, nset=TOP
  12,  13, 447, 448, 449, 450, 451, 452, 453, 454, 455, 456, 457, 458, 459
*Elset, elset=TOP
 4149, 4159, 4168, 4178, 4180, 4181, 4182, 4183, 4184, 4185, 4186, 4240, 4241, 4242
*Nset, nset=BOT
  10,  11, 419, 420, 421, 422, 423, 424, 425, 426, 427, 428, 429, 430, 431
*Elset, elset=BOT
 2966, 2967, 2977, 2978, 2993, 3000, 3001, 3003, 3004, 3005, 3055, 3056, 4013, 4026
*Nset, nset=CRACK
    1,    7,  363,  364,  365,  366,  367,  368,  369,  370,  371,  372,  373,  374,  375,  376
  377,  378, 5336, 5337, 5338, 5339, 5340, 5341, 5342, 5343, 5344, 5345, 5346, 5347, 5348, 5349
 5350, 5351, 5352
*Elset, elset=CRACK
 2801, 2803, 2812, 2815, 2818, 2821, 2822, 2823, 2824, 2825, 2855, 2859, 2860, 2863, 2865, 2867
 2868, 2891, 2894, 2895, 2896, 2900, 2902, 2906, 2919, 2939, 2945, 2948, 2953, 2954, 2955, 2956
 2957, 2958
** 
**
*****************************************************************
**
** MATERIALS
**
*****************************************************************
*Material, name=Material-1
*User material,Constants=5
<Eyoung>,<Poisson>,<erff>,<lc>,<zeta>
*User material, type=thermal, constants=4
<erff>,<lc>,<zeta>,<CP>
*Depvar
11,
1,   Hr, Hr
2,   detF, detF
3,   F_11, F_11
4,   F_22, F_22
5,   F_33, F_33
6,   F_12, F_12
7,   F_13, F_13
8,   F_21, F_21
9,   F_23, F_23
10,   F_31, F_31
11,   F_32, F_32
*Density
1.e-3
**
*********************************************************************
**                 INITIAL CONDITIONS, MODEL DATA
*********************************************************************
*Initial Conditions, type=TEMPERATURE
nall, 0.
*********************************************************************
** BOUNDARY CONDITIONS
** Name: BC-1 Type: Displacement/Rotation
*Boundary
BOT, 1, 2
** STEP: Step-1
** 
*Step, name=Step-1, nlgeom=YES, inc=10000, unsymm=YES
*Coupled Temperature-displacement, deltmx = 1.
0.1, 100., 1.e-10, 0.1
*Solution Technique, type=SEPARATED
** *Controls, reset	
*Controls, parameters=time incrementation
100, 100, 100, 100, 100, 100, ,20 , , ,
*Boundary
TOP, 2, 2, 0.0035
** 
** FIELD OUTPUT: F-Output-1
** 
*Output, field, time interval=0.01, time marks=no
*Node Output
U, NT
*Element Output, directions=YES
SDV,S,LE
** 
** HISTORY OUTPUT: H-Output-1
** 
*Output, history, frequency=1
*Node Output, nset=Top
RF2, U2
*End Step